      1 'GENROU' 1     6.0000      0.50000       1.0000      0.50000E-01
          2.4100       0.0000       1.4000       1.3500      0.30000
         0.60000      0.20000      0.10000       0.0000       0.0000      /
      1 'SEXS'   1     0.0000       10.000       100.00      0.10000
          0.0000       3.0000      /
      1 'HYGOV'  1    0.04000      1.00000       10.000      0.050000
          0.8000      0.00100       1.0000       0.0000        1.000
          1.3000       0.0000      0.80000E-01  /
      4 'GENROU' 1     6.0000      0.50000       1.0000      0.50000E-01
          2.4100       0.0000       1.4000       1.3500      0.30000
         0.60000      0.20000      0.10000       0.0000       0.0000      /
      4 'SEXS'   1     0.0000       10.000       100.00      0.10000
          0.0000       3.0000      /
      4 'HYGOV'  1    0.04000      1.00000       10.000      0.050000
          0.8000      0.00100       1.0000       0.0000        1.000
          1.3000       0.0000      0.80000E-01  /