      1 'GENROU' 1     8.0000      0.30000E-01  0.40000      0.50000E-01
          6.5000       0.0000      1.80000      1.70000  	 0.30000
         0.55000  	   0.2500      0.20000      0.0000       0.0000      /
      1 'SEXS'   1     0.1000       10.000       20.00      0.00000
          0.0000       3.0000      /
      1 'HYGOV'  1    0.33000       1.0000       10.000      0.50000E-01
          10.000      0.10000E-02   1.0000       0.0000       1.0000
          1.5000       0.0000      0.80000E-01  /
      2 'GENROU' 1     8.0000      0.30000E-01  0.40000      0.50000E-01
          6.5000       0.0000      1.80000      1.70000  	 0.30000
         0.55000  	   0.2500      0.20000      0.0000       0.0000      /
      2 'SEXS'   1     0.1000       10.000       20.00      0.00000
          0.0000       3.0000      /
      2 'HYGOV'  1    0.33000       1.0000       10.000      0.50000E-01
          10.000      0.10000E-02   1.0000       0.0000       1.0000
          1.5000       0.0000      0.80000E-01  /
      3 'GENROU' 1     8.0000      0.30000E-01  0.40000      0.50000E-01
          6.1750       0.0000      1.80000      1.70000  	 0.30000
         0.55000  	   0.2500      0.20000      0.0000       0.0000      /
      3 'SEXS'   1     0.1000       10.000       20.00      0.00000
          0.0000       3.0000      /
      3 'HYGOV'  1    0.33000       1.0000       10.000      0.50000E-01
          10.000      0.10000E-02   1.0000       0.0000       1.0000
          1.5000       0.0000      0.80000E-01  /
      4 'GENROU' 1     8.0000      0.30000E-01  0.40000      0.50000E-01
          6.1750       0.0000      1.80000      1.70000  	 0.30000
         0.55000  	   0.2500      0.20000      0.0000       0.0000      /
      4 'SEXS'   1     0.1000       10.000       20.00      0.00000
          0.0000       3.0000      /
      4 'HYGOV'  1    0.33000       1.0000       10.000      0.50000E-01
          10.000      0.10000E-02   1.0000       0.0000       1.0000
          1.5000       0.0000      0.80000E-01  /
