0,   100.00,  32, 0, 1, 60.00     / PSS(R)E 32 RAW created by rawd32  MON, MAR 18 2024  19:09
THIS IS A REDUCED WECC 240-BUS POWER SYSTEM MODEL REFLECTING
REFERENCE: H. YUAN, R. S. BISWAS, J. TAN AND Y. ZHANG, "DEVE
  1001,'FOURCORN    ', 500.0000,1,   1,   3,   1,1.03401,   5.5208
  1002,'FOURCORN    ', 345.0000,1,   1,   3,   1,1.01400,   8.3128
  1003,'FOURCORN    ', 230.0000,1,   1,  10,   1,0.97318,  -0.3477
  1004,'SAN JUAN    ', 345.0000,1,   1,  10,   1,1.03000,  18.7549
  1032,'FCNGN4CC    ',  20.0000,2,   1,  10,   1,1.01390,   8.8946
  1034,'SJUAN G4    ',  20.0000,2,   1,  10,   1,1.03340,  20.3726
  1101,'CORONADO    ', 500.0000,1,   1,   3,   1,1.01000, -13.6506
  1102,'CHOLLA      ', 345.0000,1,   1,   3,   1,0.99464,  -4.8473
  1131,'CORONADO    ',  20.0000,2,   1,   3,   1,1.00946, -12.9217
  1201,'MOENKOPI    ', 500.0000,1,   1,   3,   1,1.09135,  -6.6847
  1202,'NAVAJO      ', 500.0000,1,   1,   3,   1,1.08000,  -3.9326
  1232,'NAVAJO 2    ',  20.0000,2,   1,   3,   1,1.07990,  -3.1011
  1301,'MEAD        ', 500.0000,1,   1,   3,   1,1.04500,  -9.9346
  1302,'H ALLEN     ', 500.0000,1,   1,   9,   1,1.02443, -11.7467
  1303,'H ALLEN     ', 345.0000,1,   1,   9,   1,1.00500, -15.2840
  1331,'HOOVER      ',  20.0000,2,   1,   3,   1,1.04505,  -8.8541
  1333,'H ALLEN     ',  20.0000,2,   1,   9,   1,1.00791, -13.8285
  1401,'PALOVRDE    ', 500.0000,1,   1,   3,   1,1.03500, -14.8489
  1402,'WESTWING    ', 500.0000,1,   1,   3,   1,1.05894, -20.4238
  1403,'PARKER      ', 230.0000,1,   1,   3,   1,1.03527, -14.4733
  1431,'PALOVRD2    ',  20.0000,2,   1,   3,   1,1.04004, -12.4965
  2000,'MEXICO      ', 230.0000,1,   4,   7,   1,1.00000, -16.8470
  2030,'MEXICO      ',  20.0000,2,   4,   7,   1,1.00135, -16.1437
  2100,'IMPERIAL    ', 230.0000,1,   2,   2,   1,1.03500, -12.5239
  2130,'IMPERIAL    ',  20.0000,2,   2,   2,   1,1.03554, -12.1687
  2201,'MIGUEL      ', 500.0000,1,   2,   2,   1,0.99374, -26.5879
  2202,'MIGUEL      ', 230.0000,1,   2,   2,   1,0.99067, -27.7772
  2203,'MISSION     ', 230.0000,1,   2,   2,   1,1.00500, -28.0025
  2233,'MISSION     ',  20.0000,2,   2,   2,   1,1.00686, -27.7214
  2301,'IMPRLVLY    ', 500.0000,1,   2,   2,   1,1.03559, -15.0490
  2302,'IMPRLVLY    ', 230.0000,1,   2,   2,   1,1.03500, -13.9569
  2332,'IMPRLVLY    ',  20.0000,2,   2,   2,   1,1.03520, -13.7222
  2400,'DEVERS      ', 500.0000,1,   2,   2,   1,1.02954, -19.8567
  2401,'LUGO        ', 500.0000,1,   2,   2,   1,1.05004, -13.7725
  2402,'MIRALOMA    ', 500.0000,1,   2,   2,   1,1.03176, -18.0798
  2403,'VALLEY      ', 500.0000,1,   2,   2,   1,1.02709, -22.4664
  2404,'VINCENT     ', 500.0000,1,   2,   2,   1,1.03915, -10.0114
  2405,'SYLMAR S    ', 230.0000,1,   2,   2,   1,1.01146, -11.1225
  2406,'EAGLROCK    ', 230.0000,1,   2,   2,   1,1.00777, -15.0431
  2407,'LITEHIPE    ', 230.0000,1,   2,   2,   1,0.97490, -20.9727
  2408,'MESA CAL    ', 230.0000,1,   2,   2,   1,1.00900,  -9.2547
  2409,'MIRALOMA    ', 230.0000,1,   2,   2,   1,1.02000, -18.8536
  2410,'PARDEE      ', 230.0000,1,   2,   2,   1,1.00710, -14.7732
  2411,'VINCENT     ', 230.0000,1,   2,   2,   1,1.02033, -11.4969
  2431,'LUGO        ',  20.0000,2,   2,   2,   1,1.05000, -13.7465
  2434,'VINCENT     ',  20.0000,2,   2,   2,   1,1.02000, -11.4694
  2438,'MESA CAL    ',  20.0000,2,   2,   2,   1,1.00981,  -7.8307
  2439,'MIRALOMA    ',  20.0000,2,   2,   2,   1,1.01976, -18.7985
  2501,'SERRANO     ', 500.0000,1,   2,   2,   1,1.02695, -20.3465
  2502,'SERRANO     ', 230.0000,1,   2,   2,   1,1.02321, -21.6813
  2503,'S.ONOFRE    ', 230.0000,1,   2,   2,   1,1.00900, -23.6451
  2533,'S.ONOFRE    ',  20.0000,2,   2,   2,   1,1.00959, -23.1111
  2600,'ADELANTO    ', 500.0000,2,   2,   2,   1,1.05578,  -9.4454
  2601,'RINALDI     ', 500.0000,1,   2,   2,   1,1.04794,  -9.8944
  2602,'STA E       ', 500.0000,1,   2,   2,   1,1.02251,  -9.5117
  2603,'VICTORVL    ', 500.0000,1,   2,   2,   1,1.05657, -10.1048
  2604,'INTERMT     ', 345.0000,1,   2,   2,   1,1.03000,  -3.3285
  2605,'STA B1      ', 287.0000,1,   2,   2,   1,1.02096,  -7.3193
  2606,'STA B2      ', 287.0000,1,   2,   2,   1,1.02096,  -7.3193
  2607,'VICTORVL    ', 287.0000,1,   2,   2,   1,1.04733,  -9.1742
  2608,'CASTAIC     ', 230.0000,1,   2,   2,   1,1.01500,  -9.5144
  2609,'GLENDAL     ', 230.0000,1,   2,   2,   1,0.99971,  -7.7972
  2610,'HAYNES      ', 230.0000,1,   2,   2,   1,1.00400,   6.3819
  2611,'OLIVE       ', 230.0000,1,   2,   2,   1,1.01500,  -9.7076
  2612,'RINALDI     ', 230.0000,1,   2,   2,   1,1.01357, -10.0736
  2613,'RIVER       ', 230.0000,1,   2,   2,   1,0.99477,  -4.3001
  2614,'STA BLD     ', 230.0000,1,   2,   2,   1,1.00215,  -5.8774
  2615,'STA E       ', 230.0000,1,   2,   2,   1,1.00539,  -9.2244
  2616,'STA F       ', 230.0000,1,   2,   2,   1,0.99670,  -4.6341
  2617,'STA G       ', 230.0000,1,   2,   2,   1,0.99769,  -6.3637
  2618,'STA J       ', 230.0000,1,   2,   2,   1,1.01112, -11.0711
  2619,'SYLMARLA    ', 230.0000,2,   2,   2,   1,1.01253,  -9.7695
  2620,'VALLEY      ', 230.0000,1,   2,   2,   1,1.00929, -10.1310
  2621,'STA B       ', 138.0000,1,   2,   2,   1,1.01278,  -6.9819
  2630,'HAYNES3G    ',  20.0000,2,   2,   2,   1,1.00486,   7.0299
  2631,'OLIVE       ',  20.0000,2,   2,   2,   1,1.01516,  -9.6431
  2634,'INTERM1G    ',  20.0000,2,   2,   2,   1,1.02976,  -2.9133
  2637,'OWENS G     ',  20.0000,2,   2,   2,   1,1.01377, -10.0504
  2638,'CASTAI4G    ',  20.0000,2,   2,   2,   1,1.01504,  -9.4588
  2901,'ELDORADO    ', 500.0000,1,   2,   2,   1,1.10740, -10.0717
  2902,'MOHAVE      ', 500.0000,1,   2,   2,   1,1.11742, -11.2714
  3101,'EMBRCDRD    ', 230.0000,1,   2,   2,   1,0.98132,  -7.7693
  3102,'MARTIN      ', 230.0000,1,   2,   2,   1,0.98603,  -6.6262
  3103,'SANMATEO    ', 230.0000,1,   2,   2,   1,0.99272,  -4.4959
  3104,'MARTIN      ', 115.0000,1,   2,   2,   1,0.98581, -11.4876
  3105,'POTRERO     ', 115.0000,1,   2,   2,   1,1.00000, -11.4982
  3133,'SANMATEO    ',  20.0000,2,   2,   2,   1,0.99265,  -4.4869
  3135,'POTRERO     ',  20.0000,2,   2,   2,   1,1.00043, -11.4352
  3201,'C.COSTA     ', 230.0000,1,   2,   2,   1,1.00360,  -4.5761
  3202,'MORAGA      ', 230.0000,1,   2,   2,   1,1.00210,  -4.1435
  3203,'NEWARK      ', 230.0000,1,   2,   2,   1,1.00078,  -4.2090
  3204,'PITSBURG    ', 230.0000,1,   2,   2,   1,1.01000,   0.1459
  3205,'SOBRANTE    ', 230.0000,1,   2,   2,   1,1.00075,  -2.5249
  3234,'PITSBURG    ',  20.0000,2,   2,   2,   1,1.01208,   1.2653
  3301,'METCALF     ', 500.0000,1,   2,   2,   1,1.01129,  -4.7204
  3302,'JEFFERSN    ', 230.0000,1,   2,   2,   1,0.98430,  -7.6556
  3303,'METCALF     ', 230.0000,1,   2,   2,   1,1.00000,  -5.4591
  3304,'MONTAVIS    ', 230.0000,1,   2,   2,   1,0.98986,  -7.0282
  3305,'RAVENSWD    ', 230.0000,1,   2,   2,   1,0.99501,  -4.7762
  3333,'METCALF     ',  20.0000,2,   2,   2,   1,1.00078,  -5.2269
  3401,'GREGG       ', 230.0000,1,   2,   2,   1,0.96737, -13.8594
  3402,'HELMS PP    ', 230.0000,1,   2,   2,   1,0.96950, -13.8731
  3403,'MC CALL     ', 230.0000,1,   2,   2,   1,1.00000,  -1.5613
  3404,'PANOCHE     ', 230.0000,1,   2,   2,   1,0.99128,  -8.4666
  3405,'WILSON      ', 230.0000,1,   2,   2,   1,0.96235, -15.5830
  3432,'HELMS PP    ',  20.0000,1,   2,   2,   1,0.96950, -13.8731
  3433,'MC CALL     ',  20.0000,2,   2,   2,   1,1.00020,  -1.2101
  3501,'FULTON      ', 230.0000,1,   2,   2,   1,1.00000,   1.6110
  3531,'FULTON      ',  20.0000,2,   2,   2,   1,1.00036,   1.9229
  3601,'HUMBOLDT    ', 115.0000,1,   2,   2,   1,1.01500,  -3.9542
  3631,'HUMBOLDT    ',  20.0000,2,   2,   2,   1,1.01477,  -3.9272
  3701,'SUMMIT      ', 115.0000,1,   1,   9,   1,1.00000, -20.7299
  3731,'SUMMIT      ',  20.0000,2,   1,   9,   1,0.99927, -20.6663
  3801,'DIABLO      ', 500.0000,1,   2,   2,   1,1.04900,   0.1426
  3802,'GATES       ', 500.0000,1,   2,   2,   1,1.03694,  -5.8486
  3803,'MIDWAY      ', 500.0000,1,   2,   2,   1,1.04615,  -7.2018
  3804,'GATES       ', 230.0000,1,   2,   2,   1,1.00154,  -7.3542
  3805,'MIDWAY      ', 230.0000,1,   2,   2,   1,1.03500,  -6.7574
  3806,'MORROBAY    ', 230.0000,1,   2,   2,   1,1.01900,  -3.6915
  3831,'DIABLO1     ',  20.0000,2,   2,   2,   1,1.04876,   0.6915
  3835,'MIDWAY      ',  20.0000,2,   2,   2,   1,1.03528,  -6.6560
  3836,'MORROBAY    ',  20.0000,2,   2,   2,   1,1.01898,  -3.5042
  3891,'GATES1      ', 500.0000,1,   2,   2,   1,1.05230,  -9.3087
  3892,'MIDWAY1     ', 500.0000,1,   2,   2,   1,1.03868,  -3.9968
  3893,'MIDWAY2     ', 500.0000,1,   2,   2,   1,1.03352, -13.2301
  3894,'MIDWAY3     ', 500.0000,1,   2,   2,   1,1.03848,  -3.9434
  3895,'MIDWAY4     ', 500.0000,1,   2,   2,   1,1.03372, -13.2510
  3896,'MIDWAY5     ', 500.0000,1,   2,   2,   1,1.03886,  -3.7849
  3897,'MIDWAY6     ', 500.0000,1,   2,   2,   1,1.03563, -13.0888
  3901,'LOSBANOS    ', 500.0000,1,   2,   2,   1,1.03010,  -6.0380
  3902,'MOSSLAND    ', 500.0000,1,   2,   2,   1,1.00000,  -2.2550
  3903,'TESLA       ', 500.0000,1,   2,   2,   1,1.03458,  -5.2912
  3904,'VACA-DIX    ', 500.0000,1,   2,   2,   1,1.03405,  -5.4659
  3905,'TABLE MT    ', 500.0000,1,   2,   2,   1,1.04896,  -6.1543
  3906,'ROUND MT    ', 500.0000,1,   2,   2,   1,1.06983,  -5.5107
  3907,'BELLOTA     ', 230.0000,1,   2,   2,   1,0.96937, -13.7241
  3908,'BRIGHTON    ', 230.0000,1,   2,   2,   1,0.97389, -16.6013
  3909,'COLGATE     ', 230.0000,1,   2,   2,   1,0.98549, -17.7849
  3910,'CORTINA     ', 230.0000,1,   2,   2,   1,0.97954, -12.9999
  3911,'COTWDPGE    ', 230.0000,1,   2,   2,   1,1.04303,  -4.1479
  3912,'GLENN       ', 230.0000,1,   2,   2,   1,1.02450, -10.2114
  3913,'GOLDHILL    ', 230.0000,1,   2,   2,   1,0.98653, -12.6939
  3914,'IGNACIO     ', 230.0000,1,   2,   2,   1,0.99132,  -2.1426
  3915,'LAKEVILE    ', 230.0000,1,   2,   2,   1,0.99697,  -3.3904
  3916,'LOGAN CR    ', 230.0000,1,   2,   2,   1,1.02215,  -9.9628
  3917,'LOSBANOS    ', 230.0000,1,   2,   2,   1,1.01130,  -8.2743
  3918,'MOSSLAND    ', 230.0000,1,   2,   2,   1,0.99449,  -5.9737
  3919,'PALERMO     ', 230.0000,1,   2,   2,   1,0.99520, -16.6396
  3920,'RIO OSO     ', 230.0000,1,   2,   2,   1,0.98792, -16.3069
  3921,'ROUND MT    ', 230.0000,1,   2,   2,   1,1.07000,   1.4921
  3922,'TABLE MT    ', 230.0000,1,   2,   2,   1,1.01513, -12.7379
  3923,'TESLA       ', 230.0000,1,   2,   2,   1,1.01759,  -1.0248
  3924,'VACA-DIX    ', 230.0000,1,   2,   2,   1,1.00942,  -5.4615
  3925,'COTWDPGE    ', 115.0000,1,   2,   2,   1,1.02989,  -4.0858
  3926,'RIO OSO     ', 115.0000,1,   2,   2,   1,0.99337, -19.5905
  3931,'ROUND MT    ',  20.0000,2,   2,   2,   1,1.07066,   1.8539
  3932,'MOSSLAND    ',  20.0000,2,   2,   2,   1,0.99874,  -1.8663
  3933,'TESLA       ',  20.0000,3,   2,   2,   1,1.02000,   0.0000
  4001,'MALIN       ', 500.0000,1,   3,  11,   1,1.08000,  -5.9439
  4002,'SUMMER L    ', 500.0000,1,   3,  11,   1,1.11411,  -3.7254
  4003,'BURNS       ', 500.0000,1,   3,  11,   1,1.12838,   4.0864
  4004,'GRIZZLY     ', 500.0000,1,   3,  11,   1,1.10132,  -5.7331
  4005,'JOHN DAY    ', 500.0000,1,   3,  11,   1,1.08000,  -5.3554
  4006,'BIG EDDY    ', 500.0000,1,   3,  11,   1,1.07594,  -8.9735
  4007,'CELILOCA    ', 500.0000,1,   3,  11,   1,1.07595,  -9.1466
  4008,'MALIN       ', 345.0000,1,   3,  11,   1,1.07982,  -8.1278
  4009,'BIG EDDY    ', 230.0000,1,   3,  11,   1,1.08000, -11.4471
  4010,'CELILO      ', 230.0000,1,   3,  11,   1,1.07871, -11.6878
  4031,'MALIN       ',  20.0000,2,   3,  11,   1,1.07688,  -5.5608
  4035,'JOHN DAY    ',  20.0000,2,   3,  11,   1,1.07767,  -4.7927
  4039,'DALLES21    ',  20.0000,2,   3,  13,   1,1.08393, -10.8976
  4090,'MALIN1      ', 500.0000,1,   3,  11,   1,1.11069,  -4.0475
  4091,'GRIZZLY1    ', 500.0000,1,   3,  11,   1,1.11061,  -4.9048
  4092,'GRIZZLY2    ', 500.0000,1,   3,  11,   1,1.09408,  -5.9395
  4093,'GRIZZLY3    ', 500.0000,1,   3,  11,   1,1.09230,  -5.9691
  4094,'GRIZZLY4    ', 500.0000,1,   3,  11,   1,1.10593,  -5.7448
  4095,'GRIZZLY5    ', 500.0000,1,   3,  11,   1,1.09241,  -5.9515
  4096,'GRIZZLY6    ', 500.0000,1,   3,  11,   1,1.09042,  -5.9833
  4097,'GRIZZLY7    ', 500.0000,1,   3,  11,   1,1.10568,  -5.7425
  4101,'COULEE      ', 500.0000,1,   3,  13,   1,1.12800,  11.2543
  4102,'HANFORD     ', 500.0000,1,   3,  13,   1,1.09600,   3.9865
  4103,'BELL        ', 500.0000,1,   3,  13,   1,1.08083,  -3.7527
  4104,'BELL        ', 230.0000,1,   3,  13,   1,1.05179, -14.7199
  4131,'COULEE      ',  20.0000,2,   3,  13,   1,1.13099,  13.1463
  4132,'HANFORD     ',  20.0000,2,   3,  13,   1,1.09651,   5.6221
  4201,'NORTH       ', 500.0000,1,   3,  13,   1,1.12000,   4.0752
  4202,'WCASCADE    ', 500.0000,1,   3,  13,   1,1.06000,  -8.2619
  4203,'WILLAMET    ', 500.0000,1,   3,  13,   1,1.02932, -11.5115
  4204,'MERIDIAN    ', 500.0000,1,   3,  13,   1,1.06186,  -7.7415
  4231,'NORTH G3    ',  20.0000,2,   3,  13,   1,1.12632,   4.9994
  4232,'WCASCADE    ',  20.0000,2,   3,  13,   1,1.05994,  -8.0356
  5001,'CANADA      ', 500.0000,1,   3,   4,   1,1.05000,  -5.7732
  5002,'CANALB      ', 500.0000,1,   3,   1,   1,1.05500,  -6.9854
  5003,'CA230TO     ', 230.0000,1,   3,   1,   1,1.05368, -10.4620
  5004,'CA230       ', 230.0000,1,   3,   4,   1,1.08678, -12.6364
  5031,'CANAD G1    ',  20.0000,2,   3,   4,   1,1.05458,  -4.0143
  5032,'CMAIN GM    ',  20.0000,2,   3,   1,   1,1.06140,  -4.5692
  6101,'MIDPOINT    ', 500.0000,1,   3,   6,   1,1.06621,  13.9079
  6102,'MIDPOINT    ', 345.0000,1,   3,   6,   1,1.03000,  16.6825
  6103,'BORAH       ', 345.0000,1,   3,   6,   1,1.01568,  14.8574
  6104,'BORAH       ', 230.0000,1,   3,   6,   1,1.00994,   2.6502
  6132,'MIDPOINT    ',  20.0000,2,   3,   6,   1,1.02570,  17.7032
  6201,'COLSTRP     ', 500.0000,1,   3,   8,   1,1.06000,   7.3460
  6202,'GARRISON    ', 500.0000,1,   3,   8,   1,1.09478,   2.7169
  6203,'COLSTRP     ', 230.0000,1,   3,   8,   1,1.00576,   6.4446
  6204,'GARRISON    ', 230.0000,1,   3,   8,   1,1.05174,   3.1078
  6205,'MONTANA     ', 230.0000,1,   3,   8,   1,1.05000,  12.9844
  6231,'COLSTRP     ',  20.0000,2,   3,   8,   1,1.05917,   7.5833
  6235,'MONTA G1    ',  20.0000,2,   3,   8,   1,1.05069,  13.3508
  6301,'BRIDGER     ', 345.0000,1,   3,  14,   1,1.01782,  16.1628
  6302,'LARAMIE     ', 345.0000,1,   3,  14,   1,1.00697, -32.2799
  6303,'BRIDGER2    ', 230.0000,1,   3,  14,   1,1.03000,  29.5062
  6304,'LARAMIE     ', 230.0000,1,   3,  14,   1,0.99539, -19.7433
  6305,'NAUGHTON    ', 230.0000,1,   3,  14,   1,1.06000,  29.9473
  6333,'BRIDGER     ',  20.0000,2,   3,  14,   1,1.03304,  30.5179
  6335,'NAUGHT      ',  20.0000,2,   3,  14,   1,1.06354,  30.6661
  6401,'TRACYSPP    ', 345.0000,1,   1,   9,   1,1.06919, -19.1903
  6402,'SUMITSPP    ', 115.0000,1,   1,   9,   1,1.03097, -21.0566
  6403,'VALMY       ', 345.0000,1,   1,   9,   1,1.11000,   4.0162
  6404,'GONDER      ', 345.0000,1,   1,   9,   1,1.08150,  -4.0761
  6433,'VALMY       ',  20.0000,2,   1,   9,   1,1.11120,   4.3228
  6501,'BENLOMND    ', 345.0000,1,   3,  12,   1,1.02569,  -0.4297
  6502,'CAMP WIL    ', 345.0000,1,   3,  12,   1,1.02446,  -1.1885
  6503,'EMERY       ', 345.0000,1,   3,  12,   1,1.06500,  10.1946
  6504,'MONA        ', 345.0000,1,   3,  12,   1,1.02579,  -1.1871
  6505,'PINTO       ', 345.0000,1,   3,  12,   1,1.07139,   8.8071
  6506,'PINTO PS    ', 345.0000,1,   3,  12,   1,1.05902,   8.5787
  6507,'SIGURD      ', 345.0000,1,   3,  12,   1,1.05268,   0.2728
  6508,'SPAN FRK    ', 345.0000,1,   3,  12,   1,1.03120,   1.5170
  6509,'TERMINAL    ', 345.0000,1,   3,  12,   1,1.02517,  -1.1682
  6510,'BENLOMND    ', 230.0000,1,   3,  12,   1,0.99112,   0.3356
  6533,'EMERY       ',  20.0000,2,   3,  12,   1,1.06625,  11.0386
  7001,'COLOEAST    ', 345.0000,1,   3,   5,   1,1.02000, -33.8268
  7002,'CRAIG       ', 345.0000,1,   3,   5,   1,1.01500, -30.6715
  7031,'COLOEAST    ',  20.0000,2,   3,   5,   1,1.02617, -32.5762
  7032,'CRAIG       ',  20.0000,2,   3,   5,   1,1.01533, -29.9104
  8001,'OLINDA      ', 500.0000,1,   2,   2,   1,1.06482,  -6.0537
  8002,'TRACY       ', 500.0000,1,   2,   2,   1,1.04206,  -7.7512
  8003,'COTWDWAP    ', 230.0000,1,   2,   2,   1,1.07500,  -3.4922
  8004,'RNCHSECO    ', 230.0000,1,   2,   2,   1,1.00000, -11.7396
  8005,'TRACYPMP    ', 230.0000,1,   2,   2,   1,1.00304, -13.4280
  8033,'COTWDWAP    ',  20.0000,2,   2,   2,   1,1.07619,  -3.1996
  8034,'RNCHSECO    ',  20.0000,2,   2,   2,   1,1.00226, -10.7755
 0 /End of Bus data, Begin Load data
  1002,'1 ',1,   1,   3,   226.840,  -600.000,     0.000,     0.000,     0.000,     0.000,   1,1
  1003,'1 ',1,   1,  10,  2153.320,   366.850,     0.000,     0.000,     0.000,     0.000,   1,1
  1004,'1 ',1,   1,  10,  1037.950,     5.520,     0.000,     0.000,     0.000,     0.000,   1,1
  1101,'1 ',1,   1,   3,  4527.370,  -137.040,     0.000,     0.000,     0.000,     0.000,   1,1
  1102,'1 ',1,   1,   3,   178.910,    23.650,     0.000,     0.000,     0.000,     0.000,   1,1
  1201,'1 ',1,   1,   3,   168.050,    -2.040,     0.000,     0.000,     0.000,     0.000,   1,1
  1202,'1 ',1,   1,   3,   875.610,   287.130,     0.000,     0.000,     0.000,     0.000,   1,1
  1301,'1 ',1,   1,   3,  2704.780,   352.830,     0.000,     0.000,     0.000,     0.000,   1,1
  1302,'1 ',1,   1,   9,    17.510,     2.290,     0.000,     0.000,     0.000,     0.000,   1,1
  1303,'1 ',1,   1,   9,  6235.140,   813.350,     0.000,     0.000,     0.000,     0.000,   1,1
  1401,'1 ',1,   1,   3,  6535.540,  1524.590,     0.000,     0.000,     0.000,     0.000,   1,1
  1402,'1 ',1,   1,   3,  5373.330,  -601.660,     0.000,     0.000,     0.000,     0.000,   1,1
  2000,'1 ',1,   4,   7,  2207.190,   287.920,     0.000,     0.000,     0.000,     0.000,   1,1
  2100,'1 ',1,   2,   2,   253.040,    49.350,     0.000,     0.000,     0.000,     0.000,   1,1
  2202,'1 ',1,   2,   2,  1400.760,   244.990,     0.000,     0.000,     0.000,     0.000,   1,1
  2203,'1 ',1,   2,   2,  1537.700,   250.450,     0.000,     0.000,     0.000,     0.000,   1,1
  2400,'1 ',1,   2,   2,   763.510,    69.830,     0.000,     0.000,     0.000,     0.000,   1,1
  2401,'1 ',1,   2,   2,   794.390,    94.750,     0.000,     0.000,     0.000,     0.000,   1,1
  2402,'1 ',1,   2,   2,   974.150,    74.110,     0.000,     0.000,     0.000,     0.000,   1,1
  2403,'1 ',1,   2,   2,   949.960,    35.050,     0.000,     0.000,     0.000,     0.000,   1,1
  2405,'1 ',1,   2,   2,   742.750,    20.640,     0.000,     0.000,     0.000,     0.000,   1,1
  2406,'1 ',1,   2,   2,   664.340,   -36.750,     0.000,     0.000,     0.000,     0.000,   1,1
  2407,'1 ',1,   2,   2,  1569.980,   -33.330,     0.000,     0.000,     0.000,     0.000,   1,1
  2408,'1 ',1,   2,   2,  1568.950,   -65.360,     0.000,     0.000,     0.000,     0.000,   1,1
  2409,'1 ',1,   2,   2,  1441.600,   -78.030,     0.000,     0.000,     0.000,     0.000,   1,1
  2410,'1 ',1,   2,   2,  1421.480,    52.540,     0.000,     0.000,     0.000,     0.000,   1,1
  2411,'1 ',1,   2,   2,   978.970,    68.370,     0.000,     0.000,     0.000,     0.000,   1,1
  2502,'1 ',1,   2,   2,  2136.280,   -83.030,     0.000,     0.000,     0.000,     0.000,   1,1
  2503,'1 ',1,   2,   2,  1661.330,   181.790,     0.000,     0.000,     0.000,     0.000,   1,1
  2600,'1 ',0,   2,   2, -1680.780,     0.001,     0.000,     0.000,     0.000,     0.000,   1,1
  2602,'1 ',1,   2,   2,    89.500,    11.700,     0.000,     0.000,     0.000,     0.000,   1,1
  2604,'1 ',1,   2,   2,  1845.700,     0.000,     0.000,     0.000,     0.000,     0.000,   1,1
  2608,'1 ',1,   2,   2,    89.350,    11.660,     0.000,     0.000,     0.000,     0.000,   1,1
  2609,'1 ',1,   2,   2,   120.750,    24.180,     0.000,     0.000,     0.000,     0.000,   1,1
  2610,'1 ',1,   2,   2,    89.350,    11.660,     0.000,     0.000,     0.000,     0.000,   1,1
  2611,'1 ',1,   2,   2,    89.350,    11.660,     0.000,     0.000,     0.000,     0.000,   1,1
  2612,'1 ',1,   2,   2,   108.110,    22.340,     0.000,     0.000,     0.000,     0.000,   1,1
  2613,'1 ',1,   2,   2,   286.220,    58.200,     0.000,     0.000,     0.000,     0.000,   1,1
  2614,'1 ',1,   2,   2,   123.420,    25.060,     0.000,     0.000,     0.000,     0.000,   1,1
  2615,'1 ',1,   2,   2,   722.530,   118.280,     0.000,     0.000,     0.000,     0.000,   1,1
  2616,'1 ',1,   2,   2,   104.640,    21.490,     0.000,     0.000,     0.000,     0.000,   1,1
  2617,'1 ',1,   2,   2,   108.220,    22.380,     0.000,     0.000,     0.000,     0.000,   1,1
  2618,'1 ',1,   2,   2,   793.430,    -5.540,     0.000,     0.000,     0.000,     0.000,   1,1
  2619,'1 ',0,   2,   2, -2497.430,     0.000,     0.000,     0.000,     0.000,     0.000,   1,1
  2620,'1 ',1,   2,   2,   183.440,    15.740,     0.000,     0.000,     0.000,     0.000,   1,1
  2621,'1 ',1,   2,   2,   212.090,   -56.550,     0.000,     0.000,     0.000,     0.000,   1,1
  3101,'1 ',1,   2,   2,   307.720,    47.720,     0.000,     0.000,     0.000,     0.000,   1,1
  3102,'1 ',1,   2,   2,   143.690,    22.490,     0.000,     0.000,     0.000,     0.000,   1,1
  3103,'1 ',1,   2,   2,   377.650,    53.800,     0.000,     0.000,     0.000,     0.000,   1,1
  3104,'1 ',1,   2,   2,   279.490,    36.250,     0.000,     0.000,     0.000,     0.000,   1,1
  3105,'1 ',1,   2,   2,   215.370,    44.180,     0.000,     0.000,     0.000,     0.000,   1,1
  3201,'1 ',1,   2,   2,   418.680,    89.100,     0.000,     0.000,     0.000,     0.000,   1,1
  3202,'1 ',1,   2,   2,   530.160,    75.870,     0.000,     0.000,     0.000,     0.000,   1,1
  3203,'1 ',1,   2,   2,   592.870,   143.340,     0.000,     0.000,     0.000,     0.000,   1,1
  3204,'1 ',1,   2,   2,   601.910,    85.780,     0.000,     0.000,     0.000,     0.000,   1,1
  3205,'1 ',1,   2,   2,   492.600,    70.330,     0.000,     0.000,     0.000,     0.000,   1,1
  3302,'1 ',1,   2,   2,   311.410,    77.520,     0.000,     0.000,     0.000,     0.000,   1,1
  3303,'1 ',1,   2,   2,   562.870,   135.640,     0.000,     0.000,     0.000,     0.000,   1,1
  3304,'1 ',1,   2,   2,   480.850,   110.680,     0.000,     0.000,     0.000,     0.000,   1,1
  3305,'1 ',1,   2,   2,   387.720,    55.220,     0.000,     0.000,     0.000,     0.000,   1,1
  3401,'1 ',1,   2,   2,   505.820,   124.220,     0.000,     0.000,     0.000,     0.000,   1,1
  3403,'1 ',1,   2,   2,   464.370,    66.220,     0.000,     0.000,     0.000,     0.000,   1,1
  3404,'1 ',1,   2,   2,   395.710,    56.180,     0.000,     0.000,     0.000,     0.000,   1,1
  3405,'1 ',1,   2,   2,   406.990,    58.200,     0.000,     0.000,     0.000,     0.000,   1,1
  3501,'1 ',1,   2,   2,   562.510,    80.110,     0.000,     0.000,     0.000,     0.000,   1,1
  3601,'1 ',1,   2,   2,    94.370,    13.360,     0.000,     0.000,     0.000,     0.000,   1,1
  3701,'1 ',1,   1,   9,   319.130,    16.060,     0.000,     0.000,     0.000,     0.000,   1,1
  3801,'1 ',1,   2,   2,   172.100,    42.670,     0.000,     0.000,     0.000,     0.000,   1,1
  3804,'1 ',1,   2,   2,   202.290,    50.290,     0.000,     0.000,     0.000,     0.000,   1,1
  3805,'1 ',1,   2,   2,   449.450,   146.800,     0.000,     0.000,     0.000,     0.000,   1,1
  3806,'1 ',1,   2,   2,   260.630,    37.230,     0.000,     0.000,     0.000,     0.000,   1,1
  3902,'1 ',1,   2,   2,   137.690,    34.420,     0.000,     0.000,     0.000,     0.000,   1,1
  3903,'1 ',1,   2,   2,   197.350,    28.810,     0.000,     0.000,     0.000,     0.000,   1,1
  3907,'1 ',1,   2,   2,   417.280,    57.330,     0.000,     0.000,     0.000,     0.000,   1,1
  3908,'1 ',1,   2,   2,   182.230,    22.740,     0.000,     0.000,     0.000,     0.000,   1,1
  3909,'1 ',1,   2,   2,   157.390,    37.470,     0.000,     0.000,     0.000,     0.000,   1,1
  3910,'1 ',1,   2,   2,   223.770,    32.760,     0.000,     0.000,     0.000,     0.000,   1,1
  3911,'1 ',1,   2,   2,   213.160,    43.760,     0.000,     0.000,     0.000,     0.000,   1,1
  3912,'1 ',1,   2,   2,   160.770,    -0.600,     0.000,     0.000,     0.000,     0.000,   1,1
  3913,'1 ',1,   2,   2,   297.380,    39.300,     0.000,     0.000,     0.000,     0.000,   1,1
  3914,'1 ',1,   2,   2,   205.450,    47.510,     0.000,     0.000,     0.000,     0.000,   1,1
  3915,'1 ',1,   2,   2,   230.160,    48.550,     0.000,     0.000,     0.000,     0.000,   1,1
  3916,'1 ',1,   2,   2,   142.870,     0.000,     0.000,     0.000,     0.000,     0.000,   1,1
  3917,'1 ',1,   2,   2,   216.330,    40.320,     0.000,     0.000,     0.000,     0.000,   1,1
  3918,'1 ',1,   2,   2,   287.760,    68.110,     0.000,     0.000,     0.000,     0.000,   1,1
  3919,'1 ',1,   2,   2,   171.120,    23.030,     0.000,     0.000,     0.000,     0.000,   1,1
  3920,'1 ',1,   2,   2,   157.280,    21.870,     0.000,     0.000,     0.000,     0.000,   1,1
  3921,'1 ',1,   2,   2,   135.800,    31.340,     0.000,     0.000,     0.000,     0.000,   1,1
  3922,'1 ',1,   2,   2,   235.590,    30.640,     0.000,     0.000,     0.000,     0.000,   1,1
  3923,'1 ',1,   2,   2,   359.680,    60.490,     0.000,     0.000,     0.000,     0.000,   1,1
  3924,'1 ',1,   2,   2,   303.000,    43.520,     0.000,     0.000,     0.000,     0.000,   1,1
  3926,'1 ',1,   2,   2,   243.690,    15.390,     0.000,     0.000,     0.000,     0.000,   1,1
  4002,'1 ',1,   3,  11,   172.130,    22.910,     0.000,     0.000,     0.000,     0.000,   1,1
  4004,'1 ',1,   3,  11,   273.330,    36.050,     0.000,     0.000,     0.000,     0.000,   1,1
  4005,'1 ',1,   3,  11,   480.110,   157.420,     0.000,     0.000,     0.000,     0.000,   1,1
  4008,'1 ',1,   3,  11,   286.350,    37.510,     0.000,     0.000,     0.000,     0.000,   1,1
  4009,'1 ',1,   3,  11,  2208.740,   431.400,     0.000,     0.000,     0.000,     0.000,   1,1
  4010,'1 ',1,   3,  11,  3133.110,     0.000,     0.000,     0.000,     0.000,     0.000,   1,1
  4101,'1 ',1,   3,  13,   995.030,   129.780,     0.000,     0.000,     0.000,     0.000,   1,1
  4102,'1 ',1,   3,  13,   480.650,    68.660,     0.000,     0.000,     0.000,     0.000,   1,1
  4103,'1 ',1,   3,  13,    11.680,     1.520,     0.000,     0.000,     0.000,     0.000,   1,1
  4104,'1 ',1,   3,  13,  2550.580,   335.720,     0.000,     0.000,     0.000,     0.000,   1,1
  4201,'1 ',1,   3,  13,  5762.660,   461.010,     0.000,     0.000,     0.000,     0.000,   1,1
  4202,'1 ',1,   3,  13,  4558.240,   594.630,     0.000,     0.000,     0.000,     0.000,   1,1
  4203,'1 ',1,   3,  13,  4434.750,   585.800,     0.000,     0.000,     0.000,     0.000,   1,1
  4204,'1 ',1,   3,  13,  1008.370,   130.740,     0.000,     0.000,     0.000,     0.000,   1,1
  5001,'1 ',1,   3,   4,  7574.050,  1721.380,     0.000,     0.000,     0.000,     0.000,   1,1
  5002,'1 ',1,   3,   1,  9003.980,  1174.360,     0.000,     0.000,     0.000,     0.000,   1,1
  5003,'1 ',1,   3,   1,   620.890,    81.740,     0.000,     0.000,     0.000,     0.000,   1,1
  6102,'1 ',1,   3,   6,  1053.140,  -345.280,     0.000,     0.000,     0.000,     0.000,   1,1
  6103,'1 ',1,   3,   6,   392.450,    51.260,     0.000,     0.000,     0.000,     0.000,   1,1
  6104,'1 ',1,   3,   6,  1700.080,   222.420,     0.000,     0.000,     0.000,     0.000,   1,1
  6201,'1 ',1,   3,   8,   205.820,    26.860,     0.000,     0.000,     0.000,     0.000,   1,1
  6202,'1 ',1,   3,   8,    89.030,    13.620,     0.000,     0.000,     0.000,     0.000,   1,1
  6203,'1 ',1,   3,   8,   612.730,   145.270,     0.000,     0.000,     0.000,     0.000,   1,1
  6204,'1 ',1,   3,   8,   702.080,   157.710,     0.000,     0.000,     0.000,     0.000,   1,1
  6205,'1 ',1,   3,   8,   489.280,    86.340,     0.000,     0.000,     0.000,     0.000,   1,1
  6301,'1 ',1,   3,  14,   517.660,    67.700,     0.000,     0.000,     0.000,     0.000,   1,1
  6302,'1 ',1,   3,  14,   592.500,    77.400,     0.000,     0.000,     0.000,     0.000,   1,1
  6303,'1 ',1,   3,  14,   746.600,    97.400,     0.000,     0.000,     0.000,     0.000,   1,1
  6305,'1 ',1,   3,  14,    60.230,    19.750,     0.000,     0.000,     0.000,     0.000,   1,1
  6401,'1 ',1,   1,   9,  1746.220,   237.840,     0.000,     0.000,     0.000,     0.000,   1,1
  6402,'1 ',1,   1,   9,   280.570,    37.700,     0.000,     0.000,     0.000,     0.000,   1,1
  6403,'1 ',1,   1,   9,     2.200,     0.270,     0.000,     0.000,     0.000,     0.000,   1,1
  6404,'1 ',1,   1,   9,    29.750,     3.980,     0.000,     0.000,     0.000,     0.000,   1,1
  6501,'1 ',1,   3,  12,   197.330,    65.310,     0.000,     0.000,     0.000,     0.000,   1,1
  6502,'1 ',1,   3,  12,  1570.440,   283.000,     0.000,     0.000,     0.000,     0.000,   1,1
  6503,'1 ',1,   3,  12,   441.150,   144.600,     0.000,     0.000,     0.000,     0.000,   1,1
  6504,'1 ',1,   3,  12,   300.410,    39.630,     0.000,     0.000,     0.000,     0.000,   1,1
  6505,'1 ',1,   3,  12,     7.020,     2.380,     0.000,     0.000,     0.000,     0.000,   1,1
  6507,'1 ',1,   3,  12,   554.920,   -64.610,     0.000,     0.000,     0.000,     0.000,   1,1
  6508,'1 ',1,   3,  12,   132.630,    43.730,     0.000,     0.000,     0.000,     0.000,   1,1
  6509,'1 ',1,   3,  12,     8.670,     2.870,     0.000,     0.000,     0.000,     0.000,   1,1
  6510,'1 ',1,   3,  12,  1949.220,  -109.330,     0.000,     0.000,     0.000,     0.000,   1,1
  7001,'1 ',1,   3,   5,  7000.920,   772.350,     0.000,     0.000,     0.000,     0.000,   1,1
  7002,'1 ',1,   3,   5,  2554.830,  -138.070,     0.000,     0.000,     0.000,     0.000,   1,1
  8003,'1 ',1,   2,   2,   587.400,    76.630,     0.000,     0.000,     0.000,     0.000,   1,1
  8004,'1 ',1,   2,   2,  3409.100,   444.700,     0.000,     0.000,     0.000,     0.000,   1,1