      1 'GENROU' 1     8.0000      0.30000E-01  0.40000      0.50000E-01
          6.5000       0.0000      1.80000      1.70000  	 0.30000
         0.55000  	   0.2500      0.20000      0.0000       0.0000      /
      1 'SEXS'   1     0.1000       10.000       20.00      0.00000
          0.0000       3.0000      /
      1 'GAST'   1    0.33000      0.50000      0.50000       3.0000
          1.0000       2.0000       1.0000       0.0000       0.0000      /
      2 'GENROU' 1     8.0000      0.30000E-01  0.40000      0.50000E-01
          6.5000       0.0000      1.80000      1.70000  	 0.30000
         0.55000  	   0.2500      0.20000      0.0000       0.0000      /
      2 'SEXS'   1     0.1000       10.000       20.00      0.00000
          0.0000       3.0000      /
      2 'GAST'   1    0.33000      0.50000      0.50000       3.0000
          1.0000       2.0000       1.0000       0.0000       0.0000      /
      3 'GENROU' 1     8.0000      0.30000E-01  0.40000      0.50000E-01
          6.1750       0.0000      1.80000      1.70000  	 0.30000
         0.55000  	   0.2500      0.20000      0.0000       0.0000      /
      3 'SEXS'   1     0.1000       10.000       20.00      0.00000
          0.0000       3.0000      /
      3 'GAST'   1    0.33000      0.50000      0.50000       3.0000
          1.0000       2.0000       1.0000       0.0000       0.0000      /
      4 'GENROU' 1     8.0000      0.30000E-01  0.40000      0.50000E-01
          6.1750       0.0000      1.80000      1.70000  	 0.30000
         0.55000  	   0.2500      0.20000      0.0000       0.0000      /
      4 'SEXS'   1     0.1000       10.000       20.00      0.00000
          0.0000       3.0000      /
      4 'GAST'   1    0.33000      0.50000      0.50000       3.0000
          1.0000       2.0000       1.0000       0.0000       0.0000      /
