1, 'GENROU',  1, 8.9600, 0.0300, 0.6000, 0.0500, 23.6400, 0, 0.1460, 0.0969, 0.0608, 0.0969, 0.0336, 0.0336, 0.000, 0.00 /
2, 'GENROU',  1, 6.0000, 0.0300, 0.5350, 0.0500, 6.4000 , 0, 0.8958, 0.8645, 0.1198, 0.1969, 0.0521, 0.0521, 0.000, 0.00 /
3, 'GENROU',  1, 5.8900, 0.0300, 0.6000, 0.0500, 3.0100 , 0, 1.3125, 1.2578, 0.1813, 0.2500, 0.0742, 0.0742, 0.000, 0.00 /
      1 'SEXS'   1     0.0000       10.000       100.00      0.10000
          0.0000       3.0000      /
      1 'TGOV1'  1    0.80000E-01   2.0000       1.0000       0.0000
          3.0000       15.000      0.40000      /
      2 'SEXS'   1     0.0000       10.000       100.00      0.10000
          0.0000       3.0000      /
      2 'TGOV1'  1    0.80000E-01   2.0000       1.0000       0.0000
          3.0000       15.000      0.40000      /
      3 'SEXS'   1     0.0000       10.000       100.00      0.10000
          0.0000       3.0000      /
      3 'TGOV1'  1    0.80000E-01   2.0000       1.0000       0.0000
          3.0000       15.000      0.40000      /
      5 'REGCA1' RE       1
         0.20000E-01   10.000      0.90000      0.40000       1.2200
          1.2000      0.90000      0.50000      -1.3000      0.20000E-01
          0.0000       100.00      -100.00      0.70000      /
      5 'REECB1' RE
          0          0       1       0       0
         -99.000          99.000         0.20000E-01      0.0000          0.0000
          0.0000          1.1000         -1.1000          0.0000         0.50000E-01
         0.44000        -0.44000          1.0500         0.90000          0.0000
         0.10000E-01      10.000          60.000         0.20000E-01      99.000
         -99.000          1.0000          0.0000          1.1100         0.20000E-01   /
      5 'REPCA1' RE
             0           0           0    '0 '        0       0       1
         0.20000E-01      18.000          5.0000          0.0000         0.50000E-01
          0.0000          0.0000          0.0000         0.20000E-01     0.10000
        -0.10000         -1.0000          1.0000         0.43000        -0.43000
          1.0000         0.50000E-01     0.25000         -1.0000          1.0000
          99.000         -99.000          1.0000          0.0000         0.10000
          0.0000          0.0000      /